/*--------------------------------*- C++ -*----------------------------------*\
| =========                 |                                                 |
| \\      /  F ield         | OpenFOAM: The Open Source CFD Toolbox           |
|  \\    /   O peration     | Version:  v2006                                 |
|   \\  /    A nd           | Website:  www.openfoam.com                      |
|    \\/     M anipulation  |                                                 |
\*---------------------------------------------------------------------------*/
FoamFile
{
    version     2.0;
    format      ascii;
    class       dictionary;
    location    "constant";
    object      transportProperties;
}
// * * * * * * * * * * * * * * * * * * * * * * * * * * * * * * * * * * * * * //

transportModel  Newtonian;

nu              1e-05;

rho             rho     [1 -3 0 0 0 0 0 ] 1000;
Cp              Cp      [0 2 -2 -1 0 0 0 ] 4183;
k               k       [1 1 -3 -1 0 0 0 ] 0.6;
h               h       [1 0 -3 -1 0 0 0 ] 100;
Tsur            Tsur    [0 0 0 1 0 0 0 ] 80;

// ************************************************************************* //
