/*--------------------------------*- C++ -*----------------------------------*\
| =========                 |                                                 |
| \\      /  F ield         | OpenFOAM: The Open Source CFD Toolbox           |
|  \\    /   O peration     | Version:  v2006                                 |
|   \\  /    A nd           | Website:  www.openfoam.com                      |
|    \\/     M anipulation  |                                                 |
\*---------------------------------------------------------------------------*/
FoamFile
{
    version     2.0;
    format      ascii;
    class       volScalarField;
    object      T;
}
// * * * * * * * * * * * * * * * * * * * * * * * * * * * * * * * * * * * * * //

dimensions      [0 0 0 1 0 0 0];

internalField   uniform 291;

boundaryField
{
    floor
    {
        type            temperaturePIDFixedGradient;
        Q               1200;
        kappa           25;
        regulator
        {
            sensor
            {
                field       T;
                type        points;
                points
                (
                    (5.0 4.5 5.0)
                    (5.5 4.5 5.0)
                    (4.5 4.5 5.0)
                );
            }
            targetValue 293;
            mode        twoStep;
            h           1;
        }
    }

    ceiling
    {
        type            zeroGradient;
    }

    walls
    {
        type            fixedGradient;
        gradient        uniform -10;
    }
}

// ************************************************************************* //
